electric-grid/physical/synthetic/synAustinTD/models/syn-austin-D_only-v03/P5U/base/opendss/p5uhs1_1247/Master.dss
Clear

New Circuit.substation_p5uhs1_69 bus1=p5uhs1_69 pu=1.0 basekV=69.0 R1=1e-05 X1=1e-05 R0=1e-05 X0=1e-05

Redirect Transformers.dss
Redirect p5uhs1_1247--p5udt6125/Transformers.dss
Redirect p5uhs1_1247--p5udt6240/Transformers.dss
Redirect p5uhs1_1247--p5udt4629/Transformers.dss
Redirect p5uhs1_1247--p5udt4788/Transformers.dss
Redirect Regulators.dss
Redirect p5uhs1_1247--p5udt6125/Loads.dss
Redirect p5uhs1_1247--p5udt4788/Loads.dss
Redirect p5uhs1_1247--p5udt6240/Loads.dss
Redirect p5uhs1_1247--p5udt4629/Loads.dss
Redirect LineCodes.dss
Redirect p5uhs1_1247--p5udt6125/LineCodes.dss
Redirect p5uhs1_1247--p5udt6240/LineCodes.dss
Redirect p5uhs1_1247--p5udt4629/LineCodes.dss
Redirect p5uhs1_1247--p5udt4788/LineCodes.dss
Redirect Lines.dss
Redirect p5uhs1_1247--p5udt6125/Lines.dss
Redirect p5uhs1_1247--p5udt6240/Lines.dss
Redirect p5uhs1_1247--p5udt4629/Lines.dss
Redirect p5uhs1_1247--p5udt4788/Lines.dss
Redirect p5uhs1_1247--p5udt6125/Capacitors.dss
Redirect p5uhs1_1247--p5udt4788/Capacitors.dss
Redirect p5uhs1_1247--p5udt4629/Capacitors.dss

Set Voltagebases=[0.2080002494301389, 0.48, 7.199560000000001, 12.47, 69.0]

Calcvoltagebases

Buscoords Buscoords.dss

Solve